powerflow/Codes/PF_Formulation/resultados_csv/18/9bus/barras.csv
caso,script,bus_id,vm_pu,va_rad,pd_pu,qd_pu,pg_pu,qg_pu,bus_type
9bus.pwf,18,1,1.0084477114914627,0.0,0.0,0.0,1.4291699621247804,0.22264795077604685,3
9bus.pwf,18,2,1.0048511107620404,-0.03688541413838202,0.0,0.0,0.9,0.039909388320475955,2
9bus.pwf,18,3,1.0069501759179929,-0.02953970771560537,0.0,0.0,0.85,-0.05242990475116698,2
9bus.pwf,18,4,0.9990710794759493,-0.08179768256030556,0.0,0.0,0.0,0.0,1
9bus.pwf,18,5,0.972528559067507,-0.1547823355926168,1.25,0.5,0.0,0.0,1
9bus.pwf,18,6,0.9880260571334507,-0.13417892572051854,0.9,0.3,0.0,0.0,1
9bus.pwf,18,7,1.0039306893697126,-0.09267361813291633,0.0,0.0,0.0,0.0,1
9bus.pwf,18,8,0.9937783033120182,-0.12785837371671266,1.0,0.35,0.0,0.0,1
9bus.pwf,18,9,1.0112119740272505,-0.07847697513452304,0.0,0.0,0.0,0.0,1
